LTspice 26.0.0 for Windows
Circuit: D:\Github\CMOS\TransmissionGate.net
Start Time: Sun May 31 22:12:01 2026
solver = Normal
Maximum thread count: 16
tnom = 27
temp = 27
method = trap
Compress1stOrder = true
Compress2ndOrder = true
D:\Github\CMOS\TransmissionGate.net(6): Limiting rise time to 0.0005.

V2 Input 0 PULSE(0 5 0 0 0 5ms 10ms 10)
^^^^^^^^^^^^^^^^^^^^^^^^^^^^^^^^^^^^^^^
D:\Github\CMOS\TransmissionGate.net(6): Limiting fall time to 0.0005.

V2 Input 0 PULSE(0 5 0 0 0 5ms 10ms 10)
^^^^^^^^^^^^^^^^^^^^^^^^^^^^^^^^^^^^^^^
WARNING: Node x1:n001 is floating.
WARNING: Node x1:n002 is floating.

Direct Newton iteration succeeded in finding operating point.
Total elapsed time: 0.224 seconds.

Files loaded:
D:\Github\CMOS\TransmissionGate.net
C:\Users\MADHUSUDAN\AppData\Local\LTspice\lib\cmp\standard.mos

